Program Version,EnergyPlus, Version 8.9.0-eba93e8e1b, YMD=2018.10.24 13:13
! <Version>, Version ID
 Version, 8.9
! <Timesteps per Hour>, #TimeSteps, Minutes per TimeStep {minutes}
 Timesteps per Hour,  6, 10
! <System Convergence Limits>, Minimum System TimeStep {minutes}, Max HVAC Iterations, Minimum Plant Iterations, Maximum Plant Iterations
 System Convergence Limits, 1, 20, 2, 8
! <Simulation Control>, Do Zone Sizing, Do System Sizing, Do Plant Sizing, Do Design Days, Do Weather Simulation, Do HVAC Sizing Simulation
 Simulation Control, Yes, No, No, Yes, Yes, No
! <Output Reporting Tolerances>, Tolerance for Time Heating Setpoint Not Met, Tolerance for Zone Cooling Setpoint Not Met Time
 Output Reporting Tolerances, 0.200, 0.200, 
! <Site:GroundTemperature:BuildingSurface>,Jan{C},Feb{C},Mar{C},Apr{C},May{C},Jun{C},Jul{C},Aug{C},Sep{C},Oct{C},Nov{C},Dec{C}
 Site:GroundTemperature:BuildingSurface,  18.00,  18.00,  18.00,  18.00,  18.00,  18.00,  18.00,  18.00,  18.00,  18.00,  18.00,  18.00
! <Site:GroundTemperature:FCfactorMethod>,Jan{C},Feb{C},Mar{C},Apr{C},May{C},Jun{C},Jul{C},Aug{C},Sep{C},Oct{C},Nov{C},Dec{C}
 Site:GroundTemperature:FCfactorMethod,   1.79,   3.68,   7.36,  10.85,  17.45,  20.92,  21.88,  20.11,  16.05,  10.98,   5.99,   2.69
! <Site:GroundTemperature:Shallow>,Jan{C},Feb{C},Mar{C},Apr{C},May{C},Jun{C},Jul{C},Aug{C},Sep{C},Oct{C},Nov{C},Dec{C}
 Site:GroundTemperature:Shallow,  13.00,  13.00,  13.00,  13.00,  13.00,  13.00,  13.00,  13.00,  13.00,  13.00,  13.00,  13.00
! <Site:GroundTemperature:Deep>,Jan{C},Feb{C},Mar{C},Apr{C},May{C},Jun{C},Jul{C},Aug{C},Sep{C},Oct{C},Nov{C},Dec{C}
 Site:GroundTemperature:Deep,  16.00,  16.00,  16.00,  16.00,  16.00,  16.00,  16.00,  16.00,  16.00,  16.00,  16.00,  16.00
! <Site:GroundReflectance>,Jan{dimensionless},Feb{dimensionless},Mar{dimensionless},Apr{dimensionless},May{dimensionless},Jun{dimensionless},Jul{dimensionless},Aug{dimensionless},Sep{dimensionless},Oct{dimensionless},Nov{dimensionless},Dec{dimensionless}
 Site:GroundReflectance,  0.20,  0.20,  0.20,  0.20,  0.20,  0.20,  0.20,  0.20,  0.20,  0.20,  0.20,  0.20
! <Site:GroundReflectance:SnowModifier>, Normal, Daylighting {dimensionless}
 Site:GroundReflectance:SnowModifier,   1.000,   1.000
! <Site:GroundReflectance:Snow>,Jan{dimensionless},Feb{dimensionless},Mar{dimensionless},Apr{dimensionless},May{dimensionless},Jun{dimensionless},Jul{dimensionless},Aug{dimensionless},Sep{dimensionless},Oct{dimensionless},Nov{dimensionless},Dec{dimensionless}
 Site:GroundReflectance:Snow,  0.20,  0.20,  0.20,  0.20,  0.20,  0.20,  0.20,  0.20,  0.20,  0.20,  0.20,  0.20
! <Site:GroundReflectance:Snow:Daylighting>,Jan{dimensionless},Feb{dimensionless},Mar{dimensionless},Apr{dimensionless},May{dimensionless},Jun{dimensionless},Jul{dimensionless},Aug{dimensionless},Sep{dimensionless},Oct{dimensionless},Nov{dimensionless},Dec{dimensionless}
 Site:GroundReflectance:Snow:Daylighting,  0.20,  0.20,  0.20,  0.20,  0.20,  0.20,  0.20,  0.20,  0.20,  0.20,  0.20,  0.20
! <Environment:Weather Station>,Wind Sensor Height Above Ground {m},Wind Speed Profile Exponent {},Wind Speed Profile Boundary Layer Thickness {m},Air Temperature Sensor Height Above Ground {m},Wind Speed Modifier Coefficient-Internal,Temperature Modifier Coefficient-Internal
Environment:Weather Station,10.000,0.140,270.000,1.500,1.586,9.750E-003
! <Site:Location>, Location Name, Latitude {N+/S- Deg}, Longitude {E+/W- Deg},  Time Zone Number {GMT+/-}, Elevation {m},  Standard Pressure at Elevation {Pa}, Standard RhoAir at Elevation
Site:Location,Piacenza - ITA IGDG WMO#=160840,44.92,9.73,1.00,134.00,99726,1.1853
! <Building Information>, Building Name,North Axis {deg},Terrain,  Loads Convergence Tolerance Value,Temperature Convergence Tolerance Value,  Solar Distribution,Maximum Number of Warmup Days,Minimum Number of Warmup Days
 Building Information,Building 1,0.000,Suburbs,4.00000E-002,0.40000,FullExterior,25,6
! <Inside Convection Algorithm>, Algorithm {Simple | TARP | CeilingDiffuser | AdaptiveConvectionAlgorithm}
Inside Convection Algorithm,TARP
! <Outside Convection Algorithm>, Algorithm {SimpleCombined | TARP | MoWitt | DOE-2 | AdaptiveConvectionAlgorithm}
Outside Convection Algorithm,DOE-2
! <Sky Radiance Distribution>, Value {Anisotropic}
Sky Radiance Distribution,Anisotropic
! <Zone Air Solution Algorithm>, Value {ThirdOrderBackwardDifference | AnalyticalSolution | EulerMethod}
 Zone Air Solution Algorithm, ThirdOrderBackwardDifference
! <Zone Air Carbon Dioxide Balance Simulation>, Simulation {Yes/No}, Carbon Dioxide Concentration
 Zone Air Carbon Dioxide Balance Simulation, No,N/A
! <Zone Air Generic Contaminant Balance Simulation>, Simulation {Yes/No}, Generic Contaminant Concentration
 Zone Air Generic Contaminant Balance Simulation, No,N/A
! <Zone Air Mass Flow Balance Simulation>, Enforce Mass Balance, Adjust Zone Mixing, Adjust Zone Infiltration {AddInfiltration | AdjustInfiltration | None}, Infiltration Zones {MixingSourceZonesOnly | AllZones}
 Zone Air Mass Flow Balance Simulation, No,N/A,N/A,N/A
! <HVACSystemRootFindingAlgorithm>, Value {RegulaFalsi | Bisection | BisectionThenRegulaFalsi | RegulaFalsiThenBisection}
 HVACSystemRootFindingAlgorithm, RegulaFalsi
! <Environment:Site Atmospheric Variation>,Wind Speed Profile Exponent {},Wind Speed Profile Boundary Layer Thickness {m},Air Temperature Gradient Coefficient {K/m}
Environment:Site Atmospheric Variation,0.220,370.000,6.500000E-003
! <Surface Geometry>,Starting Corner,Vertex Input Direction,Coordinate System,Daylight Reference Point Coordinate System,Rectangular (Simple) Surface Coordinate System
 Surface Geometry,UpperLeftCorner,Counterclockwise,RelativeCoordinateSystem,RelativeCoordinateSystem,RelativeToZoneOrigin
! <Surface Heat Transfer Algorithm>, Value {CTF - ConductionTransferFunction | EMPD - MoisturePenetrationDepthConductionTransferFunction | CondFD - ConductionFiniteDifference | HAMT - CombinedHeatAndMoistureFiniteElement} - Description,Inside Surface Max Temperature Limit{C}, Surface Convection Coefficient Lower Limit {W/m2-K}, Surface Convection Coefficient Upper Limit {W/m2-K}
Surface Heat Transfer Algorithm, CTF - ConductionTransferFunction,200,0.10,1000.0
! <Shading Summary>, Number of Fixed Detached Shades, Number of Building Detached Shades, Number of Attached Shades
 Shading Summary,0,0,18
! <Zone Summary>, Number of Zones, Number of Zone Surfaces, Number of SubSurfaces
 Zone Summary,6,90,12
! <Zone Information>,Zone Name,North Axis {deg},Origin X-Coordinate {m},Origin Y-Coordinate {m},Origin Z-Coordinate {m},Centroid X-Coordinate {m},Centroid Y-Coordinate {m},Centroid Z-Coordinate {m},Type,Zone Multiplier,Zone List Multiplier,Minimum X {m},Maximum X {m},Minimum Y {m},Maximum Y {m},Minimum Z {m},Maximum Z {m},Ceiling Height {m},Volume {m3},Zone Inside Convection Algorithm {Simple-Detailed-CeilingDiffuser-TrombeWall},Zone Outside Convection Algorithm {Simple-Detailed-Tarp-MoWitt-DOE-2-BLAST}, Floor Area {m2},Exterior Gross Wall Area {m2},Exterior Net Wall Area {m2},Exterior Window Area {m2}, Number of Surfaces, Number of SubSurfaces, Number of Shading SubSurfaces,  Part of Total Building Area
 Zone Information, THERMAL ZONE 1,0.0,1.10,1.12,0.00,21.10,16.12,1.52,1,1,1,1.10,41.10,1.12,31.12,0.00,3.05,3.05,3048.00,TARP,DOE-2,1000.00,426.72,256.03,170.69,16,4,6,Yes
 Zone Information, THERMAL ZONE 2,0.0,31.10,11.12,0.00,21.10,16.12,1.52,1,1,1,11.10,31.10,11.12,21.12,0.00,3.05,3.05,609.60,TARP,DOE-2,200.00,0.00,0.00,0.00,6,0,0,Yes
 Zone Information, THERMAL ZONE 3,0.0,1.10,1.12,3.05,21.10,16.12,4.57,1,1,1,1.10,41.10,1.12,31.12,3.05,6.10,3.05,3048.00,TARP,DOE-2,1000.00,426.72,256.03,170.69,16,4,6,Yes
 Zone Information, THERMAL ZONE 4,0.0,31.10,11.12,3.05,21.10,16.12,4.57,1,1,1,11.10,31.10,11.12,21.12,3.05,6.10,3.05,609.60,TARP,DOE-2,200.00,0.00,0.00,0.00,6,0,0,Yes
 Zone Information, THERMAL ZONE 5,0.0,1.10,1.12,6.10,21.10,16.12,7.62,1,1,1,1.10,41.10,1.12,31.12,6.10,9.14,3.05,3048.00,TARP,DOE-2,1000.00,426.72,256.03,170.69,16,4,6,Yes
 Zone Information, THERMAL ZONE 6,0.0,31.10,11.12,6.10,21.10,16.12,7.62,1,1,1,11.10,31.10,11.12,21.12,6.10,9.14,3.05,609.60,TARP,DOE-2,200.00,0.00,0.00,0.00,6,0,0,Yes
! <Zone Internal Gains Nominal>,Zone Name, Floor Area {m2},# Occupants,Area per Occupant {m2/person},Occupant per Area {person/m2},Interior Lighting {W/m2},Electric Load {W/m2},Gas Load {W/m2},Other Load {W/m2},Hot Water Eq {W/m2},Steam Equipment {W/m2},Sum Loads per Area {W/m2},Outdoor Controlled Baseboard Heat
 Zone Internal Gains Nominal, THERMAL ZONE 1,1000.00,56.5,17.696,5.651E-002,10.656,7.642,0.000,0.000,0.000,0.000,18.299,No
 Zone Internal Gains Nominal, THERMAL ZONE 2,200.00,107.6,1.858,0.538,11.625,48.007,0.000,0.000,0.000,0.000,59.632,No
 Zone Internal Gains Nominal, THERMAL ZONE 3,1000.00,56.5,17.696,5.651E-002,10.656,7.642,0.000,0.000,0.000,0.000,18.299,No
 Zone Internal Gains Nominal, THERMAL ZONE 4,200.00,107.6,1.858,0.538,11.625,48.007,0.000,0.000,0.000,0.000,59.632,No
 Zone Internal Gains Nominal, THERMAL ZONE 5,1000.00,56.5,17.696,5.651E-002,10.656,7.642,0.000,0.000,0.000,0.000,18.299,No
 Zone Internal Gains Nominal, THERMAL ZONE 6,200.00,107.6,1.858,0.538,11.625,48.007,0.000,0.000,0.000,0.000,59.632,No
! <People Internal Gains Nominal>,Name,Schedule Name,Zone Name,Zone Floor Area {m2},# Zone Occupants,Number of People {},People/Floor Area {person/m2},Floor Area per person {m2/person},Fraction Radiant,Fraction Convected,Sensible Fraction Calculation,Activity level,ASHRAE 55 Warnings,Carbon Dioxide Generation Rate,Nominal Minimum Number of People,Nominal Maximum Number of People
 People Internal Gains Nominal, THERMAL ZONE 2 189.1-2009 - OFFICE - BREAKROOM - CZ1-3 PEOPLE,OFFICE MISC OCC,THERMAL ZONE 2,200.00,107.6,107.6,0.538,1.858,0.300,0.700,AutoCalculate,OFFICE ACTIVITY,No,3.8200E-008,0,108
 People Internal Gains Nominal, THERMAL ZONE 4 189.1-2009 - OFFICE - BREAKROOM - CZ1-3 PEOPLE,OFFICE MISC OCC,THERMAL ZONE 4,200.00,107.6,107.6,0.538,1.858,0.300,0.700,AutoCalculate,OFFICE ACTIVITY,No,3.8200E-008,0,108
 People Internal Gains Nominal, THERMAL ZONE 6 189.1-2009 - OFFICE - BREAKROOM - CZ1-3 PEOPLE,OFFICE MISC OCC,THERMAL ZONE 6,200.00,107.6,107.6,0.538,1.858,0.300,0.700,AutoCalculate,OFFICE ACTIVITY,No,3.8200E-008,0,108
 People Internal Gains Nominal, THERMAL ZONE 1 189.1-2009 - OFFICE - OPENOFFICE - CZ1-3 PEOPLE,OFFICE WORK OCC,THERMAL ZONE 1,1000.00,56.5,56.5,5.651E-002,17.696,0.300,0.700,AutoCalculate,OFFICE ACTIVITY,No,3.8200E-008,0,57
 People Internal Gains Nominal, THERMAL ZONE 3 189.1-2009 - OFFICE - OPENOFFICE - CZ1-3 PEOPLE,OFFICE WORK OCC,THERMAL ZONE 3,1000.00,56.5,56.5,5.651E-002,17.696,0.300,0.700,AutoCalculate,OFFICE ACTIVITY,No,3.8200E-008,0,57
 People Internal Gains Nominal, THERMAL ZONE 5 189.1-2009 - OFFICE - OPENOFFICE - CZ1-3 PEOPLE,OFFICE WORK OCC,THERMAL ZONE 5,1000.00,56.5,56.5,5.651E-002,17.696,0.300,0.700,AutoCalculate,OFFICE ACTIVITY,No,3.8200E-008,0,57
! <Lights Internal Gains Nominal>,Name,Schedule Name,Zone Name,Zone Floor Area {m2},# Zone Occupants,Lighting Level {W},Lights/Floor Area {W/m2},Lights per person {W/person},Fraction Return Air,Fraction Radiant,Fraction Short Wave,Fraction Convected,Fraction Replaceable,End-Use Category,Nominal Minimum Lighting Level {W},Nominal Maximum Lighting Level {W}
 Lights Internal Gains Nominal, THERMAL ZONE 2 189.1-2009 - OFFICE - BREAKROOM - CZ1-3 LIGHTS,OFFICE BLDG LIGHT,THERMAL ZONE 2,200.00,107.6,2325.005,11.625,21.600,0.000,0.000,0.000,1.000,1.000,General,0.000,2325.005
 Lights Internal Gains Nominal, THERMAL ZONE 4 189.1-2009 - OFFICE - BREAKROOM - CZ1-3 LIGHTS,OFFICE BLDG LIGHT,THERMAL ZONE 4,200.00,107.6,2325.005,11.625,21.600,0.000,0.000,0.000,1.000,1.000,General,0.000,2325.005
 Lights Internal Gains Nominal, THERMAL ZONE 6 189.1-2009 - OFFICE - BREAKROOM - CZ1-3 LIGHTS,OFFICE BLDG LIGHT,THERMAL ZONE 6,200.00,107.6,2325.005,11.625,21.600,0.000,0.000,0.000,1.000,1.000,General,0.000,2325.005
 Lights Internal Gains Nominal, THERMAL ZONE 1 189.1-2009 - OFFICE - OPENOFFICE - CZ1-3 LIGHTS,OFFICE BLDG LIGHT,THERMAL ZONE 1,1000.00,56.5,10656.271,10.656,188.571,0.000,0.000,0.000,1.000,1.000,General,0.000,10656.271
 Lights Internal Gains Nominal, THERMAL ZONE 3 189.1-2009 - OFFICE - OPENOFFICE - CZ1-3 LIGHTS,OFFICE BLDG LIGHT,THERMAL ZONE 3,1000.00,56.5,10656.271,10.656,188.571,0.000,0.000,0.000,1.000,1.000,General,0.000,10656.271
 Lights Internal Gains Nominal, THERMAL ZONE 5 189.1-2009 - OFFICE - OPENOFFICE - CZ1-3 LIGHTS,OFFICE BLDG LIGHT,THERMAL ZONE 5,1000.00,56.5,10656.271,10.656,188.571,0.000,0.000,0.000,1.000,1.000,General,0.000,10656.271
! <ElectricEquipment Internal Gains Nominal>,Name,Schedule Name,Zone Name,Zone Floor Area {m2},# Zone Occupants,Equipment Level {W},Equipment/Floor Area {W/m2},Equipment per person {W/person},Fraction Latent,Fraction Radiant,Fraction Lost,Fraction Convected,End-Use SubCategory,Nominal Minimum Equipment Level {W},Nominal Maximum Equipment Level {W}
 ElectricEquipment Internal Gains Nominal, THERMAL ZONE 2 189.1-2009 - OFFICE - BREAKROOM - CZ1-3 ELECTRIC EQUIPMENT,OFFICE BLDG EQUIP,THERMAL ZONE 2,200.00,107.6,9601.408,48.007,89.200,0.000,0.000,0.000,1.000,General,0.000,9601.408
 ElectricEquipment Internal Gains Nominal, THERMAL ZONE 4 189.1-2009 - OFFICE - BREAKROOM - CZ1-3 ELECTRIC EQUIPMENT,OFFICE BLDG EQUIP,THERMAL ZONE 4,200.00,107.6,9601.408,48.007,89.200,0.000,0.000,0.000,1.000,General,0.000,9601.408
 ElectricEquipment Internal Gains Nominal, THERMAL ZONE 6 189.1-2009 - OFFICE - BREAKROOM - CZ1-3 ELECTRIC EQUIPMENT,OFFICE BLDG EQUIP,THERMAL ZONE 6,200.00,107.6,9601.408,48.007,89.200,0.000,0.000,0.000,1.000,General,0.000,9601.408
 ElectricEquipment Internal Gains Nominal, THERMAL ZONE 1 189.1-2009 - OFFICE - OPENOFFICE - CZ1-3 ELECTRIC EQUIPMENT,OFFICE BLDG EQUIP,THERMAL ZONE 1,1000.00,56.5,7642.376,7.642,135.238,0.000,0.000,0.000,1.000,General,0.000,7642.376
 ElectricEquipment Internal Gains Nominal, THERMAL ZONE 3 189.1-2009 - OFFICE - OPENOFFICE - CZ1-3 ELECTRIC EQUIPMENT,OFFICE BLDG EQUIP,THERMAL ZONE 3,1000.00,56.5,7642.376,7.642,135.238,0.000,0.000,0.000,1.000,General,0.000,7642.376
 ElectricEquipment Internal Gains Nominal, THERMAL ZONE 5 189.1-2009 - OFFICE - OPENOFFICE - CZ1-3 ELECTRIC EQUIPMENT,OFFICE BLDG EQUIP,THERMAL ZONE 5,1000.00,56.5,7642.376,7.642,135.238,0.000,0.000,0.000,1.000,General,0.000,7642.376
! <Shadowing/Sun Position Calculations Annual Simulations>, Calculation Method, Value {days}, Allowable Number Figures in Shadow Overlap {}, Polygon Clipping Algorithm, Sky Diffuse Modeling Algorithm, External Shading Calculation Method, Output External Shading Calculation Results, Disable Self-Shading Within Shading Zone Groups, Disable Self-Shading From Shading Zone Groups to Other Zones
Shadowing/Sun Position Calculations Annual Simulations,AverageOverDaysInFrequency,20,15000,SutherlandHodgman,SimpleSkyDiffuseModeling,InternalCalculation,No,No,No
! <ZoneInfiltration Airflow Stats Nominal>,Name,Schedule Name,Zone Name, Zone Floor Area {m2}, # Zone Occupants,Design Volume Flow Rate {m3/s},Volume Flow Rate/Floor Area {m3/s/m2},Volume Flow Rate/Exterior Surface Area {m3/s/m2},ACH - Air Changes per Hour,Equation A - Constant Term Coefficient {},Equation B - Temperature Term Coefficient {1/C},Equation C - Velocity Term Coefficient {s/m}, Equation D - Velocity Squared Term Coefficient {s2/m2}
 ZoneInfiltration Airflow Stats Nominal, THERMAL ZONE 2 189.1-2009 - OFFICE - BREAKROOM - CZ1-3 INFILTRATION,OFFICE INFIL QUARTER ON,THERMAL ZONE 2,200.00,107.6,0.000,0.000,N/A,0.000,1.000,0.000,0.000,0.000
 ZoneInfiltration Airflow Stats Nominal, THERMAL ZONE 4 189.1-2009 - OFFICE - BREAKROOM - CZ1-3 INFILTRATION,OFFICE INFIL QUARTER ON,THERMAL ZONE 4,200.00,107.6,0.000,0.000,N/A,0.000,1.000,0.000,0.000,0.000
 ZoneInfiltration Airflow Stats Nominal, THERMAL ZONE 6 189.1-2009 - OFFICE - BREAKROOM - CZ1-3 INFILTRATION,OFFICE INFIL QUARTER ON,THERMAL ZONE 6,200.00,107.6,6.045E-002,3.023E-004,3.023E-004,0.357,1.000,0.000,0.000,0.000
 ZoneInfiltration Airflow Stats Nominal, THERMAL ZONE 1 189.1-2009 - OFFICE - OPENOFFICE - CZ1-3 INFILTRATION,OFFICE INFIL QUARTER ON,THERMAL ZONE 1,1000.00,56.5,0.129,1.290E-004,3.023E-004,0.152,1.000,0.000,0.000,0.000
 ZoneInfiltration Airflow Stats Nominal, THERMAL ZONE 3 189.1-2009 - OFFICE - OPENOFFICE - CZ1-3 INFILTRATION,OFFICE INFIL QUARTER ON,THERMAL ZONE 3,1000.00,56.5,0.129,1.290E-004,3.023E-004,0.152,1.000,0.000,0.000,0.000
 ZoneInfiltration Airflow Stats Nominal, THERMAL ZONE 5 189.1-2009 - OFFICE - OPENOFFICE - CZ1-3 INFILTRATION,OFFICE INFIL QUARTER ON,THERMAL ZONE 5,1000.00,56.5,0.431,4.312E-004,3.023E-004,0.509,1.000,0.000,0.000,0.000
! <ZoneVentilation Airflow Stats Nominal>,Name,Schedule Name,Zone Name, Zone Floor Area {m2}, # Zone Occupants,Design Volume Flow Rate {m3/s},Volume Flow Rate/Floor Area {m3/s/m2},Volume Flow Rate/person Area {m3/s/person},ACH - Air Changes per Hour,Fan Type {Exhaust;Intake;Natural},Fan Pressure Rise {Pa},Fan Efficiency {},Equation A - Constant Term Coefficient {},Equation B - Temperature Term Coefficient {1/C},Equation C - Velocity Term Coefficient {s/m}, Equation D - Velocity Squared Term Coefficient {s2/m2},Minimum Indoor Temperature{C}/Schedule,Maximum Indoor Temperature{C}/Schedule,Delta Temperature{C}/Schedule,Minimum Outdoor Temperature{C}/Schedule,Maximum Outdoor Temperature{C}/Schedule,Maximum WindSpeed{m/s}
 ZoneVentilation Airflow Stats Nominal, THERMAL ZONE 1 VENTILATION PER PERSON,OFFICE WORK OCC,THERMAL ZONE 1,1000.00,56.5,0.533,5.334E-004,9.439E-003,0.630,Natural,0.000,1.0,1.000,0.000,0.000,0.000,-100.00,100.00,-100.00,-100.00,100.00,40.00
 ZoneVentilation Airflow Stats Nominal, THERMAL ZONE 2 VENTILATION PER PERSON,OFFICE MISC OCC,THERMAL ZONE 2,200.00,107.6,0.762,3.810E-003,7.079E-003,4.500,Natural,0.000,1.0,1.000,0.000,0.000,0.000,-100.00,100.00,-100.00,-100.00,100.00,40.00
 ZoneVentilation Airflow Stats Nominal, THERMAL ZONE 3 VENTILATION PER PERSON,OFFICE WORK OCC,THERMAL ZONE 3,1000.00,56.5,0.533,5.334E-004,9.439E-003,0.630,Natural,0.000,1.0,1.000,0.000,0.000,0.000,-100.00,100.00,-100.00,-100.00,100.00,40.00
 ZoneVentilation Airflow Stats Nominal, THERMAL ZONE 4 VENTILATION PER PERSON,OFFICE MISC OCC,THERMAL ZONE 4,200.00,107.6,0.762,3.810E-003,7.079E-003,4.500,Natural,0.000,1.0,1.000,0.000,0.000,0.000,-100.00,100.00,-100.00,-100.00,100.00,40.00
 ZoneVentilation Airflow Stats Nominal, THERMAL ZONE 5 VENTILATION PER PERSON,OFFICE WORK OCC,THERMAL ZONE 5,1000.00,56.5,0.533,5.334E-004,9.439E-003,0.630,Natural,0.000,1.0,1.000,0.000,0.000,0.000,-100.00,100.00,-100.00,-100.00,100.00,40.00
 ZoneVentilation Airflow Stats Nominal, THERMAL ZONE 6 VENTILATION PER PERSON,OFFICE MISC OCC,THERMAL ZONE 6,200.00,107.6,0.762,3.810E-003,7.079E-003,4.500,Natural,0.000,1.0,1.000,0.000,0.000,0.000,-100.00,100.00,-100.00,-100.00,100.00,40.00
! <AirFlow Model>, Simple
 AirFlow Model, Simple
! <RoomAir Model>, Zone Name, Mixing/Mundt/UCSDDV/UCSDCV/UCSDUFI/UCSDUFE/User Defined
RoomAir Model,THERMAL ZONE 1,Mixing/Well-Stirred
RoomAir Model,THERMAL ZONE 2,Mixing/Well-Stirred
RoomAir Model,THERMAL ZONE 3,Mixing/Well-Stirred
RoomAir Model,THERMAL ZONE 4,Mixing/Well-Stirred
RoomAir Model,THERMAL ZONE 5,Mixing/Well-Stirred
RoomAir Model,THERMAL ZONE 6,Mixing/Well-Stirred
! <AirflowNetwork Model:Control>, No Multizone or Distribution/Multizone with Distribution/Multizone without Distribution/Multizone with Distribution only during Fan Operation
AirflowNetwork Model:Control,NoMultizoneOrDistribution
! <Zone Volume Capacitance Multiplier>, Sensible Heat Capacity Multiplier, Moisture Capacity Multiplier, Carbon Dioxide Capacity Multiplier, Generic Contaminant Capacity Multiplier
Zone Volume Capacitance Multiplier,   1.000 ,   1.000,   1.000,   1.000
! <Load Timesteps in Zone Design Calculation Averaging Window>, Value
 Load Timesteps in Zone Design Calculation Averaging Window,    6
! <Heating Sizing Factor Information>, Sizing Factor ID, Value
 Heating Sizing Factor Information, Global,   1.2500    
 Heating Sizing Factor Information, Zone THERMAL ZONE 1,   1.2500    
 Heating Sizing Factor Information, Zone THERMAL ZONE 2,   1.2500    
 Heating Sizing Factor Information, Zone THERMAL ZONE 3,   1.2500    
 Heating Sizing Factor Information, Zone THERMAL ZONE 4,   1.2500    
 Heating Sizing Factor Information, Zone THERMAL ZONE 5,   1.2500    
 Heating Sizing Factor Information, Zone THERMAL ZONE 6,   1.2500    
! <Cooling Sizing Factor Information>, Sizing Factor ID, Value
 Cooling Sizing Factor Information, Global,   1.1500    
 Cooling Sizing Factor Information, Zone THERMAL ZONE 1,   1.1500    
 Cooling Sizing Factor Information, Zone THERMAL ZONE 2,   1.1500    
 Cooling Sizing Factor Information, Zone THERMAL ZONE 3,   1.1500    
 Cooling Sizing Factor Information, Zone THERMAL ZONE 4,   1.1500    
 Cooling Sizing Factor Information, Zone THERMAL ZONE 5,   1.1500    
 Cooling Sizing Factor Information, Zone THERMAL ZONE 6,   1.1500    
! <Zone Sizing Information>, Zone Name, Load Type, Calc Des Load {W}, User Des Load {W}, Calc Des Air Flow Rate {m3/s}, User Des Air Flow Rate {m3/s}, Design Day Name, Date/Time of Peak, Temperature at Peak {C}, Humidity Ratio at Peak {kgWater/kgDryAir}, Floor Area {m2}, # Occupants, Calc Outdoor Air Flow Rate {m3/s}, Calc DOAS Heat Addition Rate {W}
 Zone Sizing Information, THERMAL ZONE 1, Cooling, 25654.35058, 29502.50317, 2.12158, 2.43982, PIACENZA ANN CLG .4% CONDNS DB=>MWB, 8/21 15:30:00, 32.74300, 1.33499E-002, 1000.00000, 56.51053, 0.53340, 0.00000
 Zone Sizing Information, THERMAL ZONE 1, Heating, 27621.49949, 34526.87437, 1.20267, 1.50334, PIACENZA ANN HTG 99.6% CONDNS DB, 1/21 06:00:00, -6.10000, 2.28840E-003, 1000.00000, 56.51053, 0.53340, 0.00000
 Zone Sizing Information, THERMAL ZONE 2, Cooling, 24394.96262, 28054.20701, 2.02153, 2.32476, PIACENZA ANN CLG .4% CONDNS DB=>MWB, 8/21 15:00:00, 33.10000, 1.33499E-002, 200.00000, 107.63910, 0.76200, 0.00000
 Zone Sizing Information, THERMAL ZONE 2, Heating, 1343.88897, 1679.86121, 5.85201E-002, 0.76200, PIACENZA ANN HTG 99.6% CONDNS DB, 1/21 06:50:00, -6.10000, 2.28840E-003, 200.00000, 107.63910, 0.76200, 0.00000
 Zone Sizing Information, THERMAL ZONE 3, Cooling, 36206.44821, 41637.41544, 2.99417, 3.44330, PIACENZA ANN CLG .4% CONDNS DB=>MWB, 8/21 15:50:00, 32.50500, 1.33499E-002, 1000.00000, 56.51053, 0.53340, 0.00000
 Zone Sizing Information, THERMAL ZONE 3, Heating, 28907.61825, 36134.52281, 1.25867, 1.57334, PIACENZA ANN HTG 99.6% CONDNS DB, 1/21 06:00:00, -6.10000, 2.28840E-003, 1000.00000, 56.51053, 0.53340, 0.00000
 Zone Sizing Information, THERMAL ZONE 4, Cooling, 26812.54348, 30834.42500, 2.22165, 2.55489, PIACENZA ANN CLG .4% CONDNS DB=>MWB, 8/21 15:00:00, 33.10000, 1.33499E-002, 200.00000, 107.63910, 0.76200, 0.00000
 Zone Sizing Information, THERMAL ZONE 4, Heating, 860.01354, 1075.01692, 3.74496E-002, 0.76200, PIACENZA ANN HTG 99.6% CONDNS DB, 1/21 07:20:00, -6.10000, 2.28840E-003, 200.00000, 107.63910, 0.76200, 0.00000
 Zone Sizing Information, THERMAL ZONE 5, Cooling, 41676.83820, 47928.36393, 3.44664, 3.96364, PIACENZA ANN CLG .4% CONDNS DB=>MWB, 8/21 16:50:00, 31.59267, 1.33499E-002, 1000.00000, 56.51053, 0.53340, 0.00000
 Zone Sizing Information, THERMAL ZONE 5, Heating, 45519.62527, 56899.53158, 1.98161, 2.47701, PIACENZA ANN HTG 99.6% CONDNS DB, 1/21 06:00:00, -6.10000, 2.28840E-003, 1000.00000, 56.51053, 0.53340, 0.00000
 Zone Sizing Information, THERMAL ZONE 6, Cooling, 27801.01450, 31971.16668, 2.30349, 2.64902, PIACENZA ANN CLG .4% CONDNS DB=>MWB, 8/21 15:10:00, 32.98100, 1.33499E-002, 200.00000, 107.63910, 0.76200, 0.00000
 Zone Sizing Information, THERMAL ZONE 6, Heating, 4119.05851, 5148.82314, 0.17933, 0.76200, PIACENZA ANN HTG 99.6% CONDNS DB, 1/21 06:00:00, -6.10000, 2.28840E-003, 200.00000, 107.63910, 0.76200, 0.00000
! <Component Sizing Information>, Component Type, Component Name, Input Field Description, Value
 Component Sizing Information, ZoneHVAC:IdealLoadsAirSystem, THERMAL ZONE 1 IDEAL LOADS AIR SYSTEM, User-Specified Maximum Heating Air Flow Rate [m3/s], 0.00000
 Component Sizing Information, ZoneHVAC:IdealLoadsAirSystem, THERMAL ZONE 1 IDEAL LOADS AIR SYSTEM, User-Specified Maximum Cooling Air Flow Rate [m3/s], 0.00000
 Component Sizing Information, ZoneHVAC:IdealLoadsAirSystem, THERMAL ZONE 2 IDEAL LOADS AIR SYSTEM, User-Specified Maximum Heating Air Flow Rate [m3/s], 0.00000
 Component Sizing Information, ZoneHVAC:IdealLoadsAirSystem, THERMAL ZONE 2 IDEAL LOADS AIR SYSTEM, User-Specified Maximum Cooling Air Flow Rate [m3/s], 0.00000
 Component Sizing Information, ZoneHVAC:IdealLoadsAirSystem, THERMAL ZONE 3 IDEAL LOADS AIR SYSTEM, User-Specified Maximum Heating Air Flow Rate [m3/s], 0.00000
 Component Sizing Information, ZoneHVAC:IdealLoadsAirSystem, THERMAL ZONE 3 IDEAL LOADS AIR SYSTEM, User-Specified Maximum Cooling Air Flow Rate [m3/s], 0.00000
 Component Sizing Information, ZoneHVAC:IdealLoadsAirSystem, THERMAL ZONE 4 IDEAL LOADS AIR SYSTEM, User-Specified Maximum Heating Air Flow Rate [m3/s], 0.00000
 Component Sizing Information, ZoneHVAC:IdealLoadsAirSystem, THERMAL ZONE 4 IDEAL LOADS AIR SYSTEM, User-Specified Maximum Cooling Air Flow Rate [m3/s], 0.00000
 Component Sizing Information, ZoneHVAC:IdealLoadsAirSystem, THERMAL ZONE 5 IDEAL LOADS AIR SYSTEM, User-Specified Maximum Heating Air Flow Rate [m3/s], 0.00000
 Component Sizing Information, ZoneHVAC:IdealLoadsAirSystem, THERMAL ZONE 5 IDEAL LOADS AIR SYSTEM, User-Specified Maximum Cooling Air Flow Rate [m3/s], 0.00000
 Component Sizing Information, ZoneHVAC:IdealLoadsAirSystem, THERMAL ZONE 6 IDEAL LOADS AIR SYSTEM, User-Specified Maximum Heating Air Flow Rate [m3/s], 0.00000
 Component Sizing Information, ZoneHVAC:IdealLoadsAirSystem, THERMAL ZONE 6 IDEAL LOADS AIR SYSTEM, User-Specified Maximum Cooling Air Flow Rate [m3/s], 0.00000
! <Environment>,Environment Name,Environment Type, Start Date, End Date, Start DayOfWeek, Duration {#days}, Source:Start DayOfWeek,  Use Daylight Saving, Use Holidays, Apply Weekend Holiday Rule,  Use Rain Values, Use Snow Values
! <Environment:Special Days>, Special Day Name, Special Day Type, Source, Start Date, Duration {#days}
! <Environment:Daylight Saving>, Daylight Saving Indicator, Source, Start Date, End Date
! <Environment:WarmupDays>, NumberofWarmupDays
Environment,PIACENZA ANN CLG .4% CONDNS DB=>MWB,SizingPeriod:DesignDay,08/21,08/21,SummerDesignDay,1,N/A,N/A,N/A,N/A,N/A,N/A
Environment:Daylight Saving,No,SizingPeriod:DesignDay
! <Environment:Design Day Data>, Max Dry-Bulb Temp {C}, Temp Range {dC}, Temp Range Ind Type, Hum Ind Value at Max Temp, Hum Ind Type,Pressure {Pa}, Wind Direction {deg CW from N}, Wind Speed {m/s}, Clearness, Rain, Snow
! <Environment:Design Day Misc>,DayOfYear,ASHRAE A Coeff,ASHRAE B Coeff,ASHRAE C Coeff,Solar Constant-Annual Variation,Eq of Time {minutes}, Solar Declination Angle {deg}, Solar Model
Environment:Design Day Data,33.10,11.90,DefaultMultipliers,99726,90,2.3,0.00,No,No
Environment:Design Day Misc,233,1106.3,0.2000,0.1216,1.0,-3.33,12.4,ASHRAETau
Environment:WarmupDays,  6
! <Tabular Report>,Style,Unit Conversion
Tabular Report,HTML,None
! <Warmup Convergence Information>,Zone Name,Environment Type/Name,Average Warmup Temperature Difference {deltaC},Std Dev Warmup Temperature Difference {deltaC},Max Temperature Pass/Fail Convergence,Min Temperature Pass/Fail Convergence,Average Warmup Load Difference {W},Std Dev Warmup Load Difference {W},Heating Load Pass/Fail Convergence,Cooling Load Pass/Fail Convergence
 Warmup Convergence Information,THERMAL ZONE 1,SizingPeriod: PIACENZA ANN CLG .4% CONDNS DB=>MWB,4.4739522615E-002,0.2667090128,Pass,Pass,4.7371211823E-002,0.1273794315,Pass,Pass
 Warmup Convergence Information,THERMAL ZONE 2,SizingPeriod: PIACENZA ANN CLG .4% CONDNS DB=>MWB,3.7500000016E-002,0.2908703595,Pass,Pass,2.1347682092E-002,9.5854037639E-002,Pass,Pass
 Warmup Convergence Information,THERMAL ZONE 3,SizingPeriod: PIACENZA ANN CLG .4% CONDNS DB=>MWB,3.9308887074E-002,0.2772439786,Pass,Pass,5.1101020114E-002,0.2504577629,Pass,Pass
 Warmup Convergence Information,THERMAL ZONE 4,SizingPeriod: PIACENZA ANN CLG .4% CONDNS DB=>MWB,3.7500000000E-002,0.2937790250,Pass,Pass,1.5368177006E-002,6.8574945223E-002,Pass,Pass
 Warmup Convergence Information,THERMAL ZONE 5,SizingPeriod: PIACENZA ANN CLG .4% CONDNS DB=>MWB,3.9314342705E-002,0.2830361723,Pass,Pass,4.7138967939E-002,0.2110516689,Pass,Pass
 Warmup Convergence Information,THERMAL ZONE 6,SizingPeriod: PIACENZA ANN CLG .4% CONDNS DB=>MWB,3.7500000000E-002,0.2947438308,Pass,Pass,1.4642526181E-002,6.7597706946E-002,Pass,Pass
Environment,PIACENZA ANN CLG .4% CONDNS DP=>MDB,SizingPeriod:DesignDay,08/21,08/21,SummerDesignDay,1,N/A,N/A,N/A,N/A,N/A,N/A
Environment:Daylight Saving,No,SizingPeriod:DesignDay
Environment:Design Day Data,27.40,11.90,DefaultMultipliers,99726,90,2.3,0.00,No,No
Environment:Design Day Misc,233,1106.3,0.2000,0.1216,1.0,-3.33,12.4,ASHRAETau
Environment:WarmupDays,  6
 Warmup Convergence Information,THERMAL ZONE 1,SizingPeriod: PIACENZA ANN CLG .4% CONDNS DP=>MDB,3.3574937738E-002,0.1679365321,Pass,Pass,3.4539759764E-002,0.1369964596,Pass,Pass
 Warmup Convergence Information,THERMAL ZONE 2,SizingPeriod: PIACENZA ANN CLG .4% CONDNS DP=>MDB,3.7698798735E-002,0.2941733926,Pass,Pass,1.8978881287E-002,5.5385415025E-002,Pass,Pass
 Warmup Convergence Information,THERMAL ZONE 3,SizingPeriod: PIACENZA ANN CLG .4% CONDNS DP=>MDB,4.3163485763E-002,0.2752427410,Pass,Pass,5.6654646523E-002,0.3030095425,Pass,Pass
 Warmup Convergence Information,THERMAL ZONE 4,SizingPeriod: PIACENZA ANN CLG .4% CONDNS DP=>MDB,3.7500000002E-002,0.2962485792,Pass,Pass,1.5094217715E-002,4.2543357426E-002,Pass,Pass
 Warmup Convergence Information,THERMAL ZONE 5,SizingPeriod: PIACENZA ANN CLG .4% CONDNS DP=>MDB,4.2737546681E-002,0.2767837863,Pass,Pass,5.5043609457E-002,0.2156081229,Pass,Pass
 Warmup Convergence Information,THERMAL ZONE 6,SizingPeriod: PIACENZA ANN CLG .4% CONDNS DP=>MDB,3.7500000002E-002,0.2967854396,Pass,Pass,1.5037316024E-002,4.3793674507E-002,Pass,Pass
Environment,PIACENZA ANN CLG .4% CONDNS ENTH=>MDB,SizingPeriod:DesignDay,08/21,08/21,SummerDesignDay,1,N/A,N/A,N/A,N/A,N/A,N/A
Environment:Daylight Saving,No,SizingPeriod:DesignDay
Environment:Design Day Data,30.30,11.90,DefaultMultipliers,99726,90,2.3,0.00,No,No
Environment:Design Day Misc,233,1106.3,0.2000,0.1216,1.0,-3.33,12.4,ASHRAETau
Environment:WarmupDays,  6
 Warmup Convergence Information,THERMAL ZONE 1,SizingPeriod: PIACENZA ANN CLG .4% CONDNS ENTH=>MDB,3.8600061030E-002,0.2232540392,Pass,Pass,4.4555856015E-002,0.2656023490,Pass,Pass
 Warmup Convergence Information,THERMAL ZONE 2,SizingPeriod: PIACENZA ANN CLG .4% CONDNS ENTH=>MDB,3.7500000000E-002,0.2919580119,Pass,Pass,1.9694437889E-002,7.1255961695E-002,Pass,Pass
 Warmup Convergence Information,THERMAL ZONE 3,SizingPeriod: PIACENZA ANN CLG .4% CONDNS ENTH=>MDB,3.9774405005E-002,0.2754612834,Pass,Pass,4.8893474199E-002,0.2006560990,Pass,Pass
 Warmup Convergence Information,THERMAL ZONE 4,SizingPeriod: PIACENZA ANN CLG .4% CONDNS ENTH=>MDB,3.7500000000E-002,0.2949544655,Pass,Pass,1.4078907547E-002,5.1113380780E-002,Pass,Pass
 Warmup Convergence Information,THERMAL ZONE 5,SizingPeriod: PIACENZA ANN CLG .4% CONDNS ENTH=>MDB,3.9811862636E-002,0.2803840086,Pass,Pass,5.7796578274E-002,0.2589986112,Pass,Pass
 Warmup Convergence Information,THERMAL ZONE 6,SizingPeriod: PIACENZA ANN CLG .4% CONDNS ENTH=>MDB,3.7500000000E-002,0.2957583541,Pass,Pass,1.4048210456E-002,5.3411651373E-002,Pass,Pass
Environment,PIACENZA ANN CLG .4% CONDNS WB=>MDB,SizingPeriod:DesignDay,08/21,08/21,SummerDesignDay,1,N/A,N/A,N/A,N/A,N/A,N/A
Environment:Daylight Saving,No,SizingPeriod:DesignDay
Environment:Design Day Data,30.10,11.90,DefaultMultipliers,99726,90,2.3,0.00,No,No
Environment:Design Day Misc,233,1106.3,0.2000,0.1216,1.0,-3.33,12.4,ASHRAETau
Environment:WarmupDays,  6
 Warmup Convergence Information,THERMAL ZONE 1,SizingPeriod: PIACENZA ANN CLG .4% CONDNS WB=>MDB,3.7923139425E-002,0.2187270817,Pass,Pass,4.3843952113E-002,0.2573973144,Pass,Pass
 Warmup Convergence Information,THERMAL ZONE 2,SizingPeriod: PIACENZA ANN CLG .4% CONDNS WB=>MDB,3.7500000000E-002,0.2920323958,Pass,Pass,1.9591812084E-002,6.9644112136E-002,Pass,Pass
 Warmup Convergence Information,THERMAL ZONE 3,SizingPeriod: PIACENZA ANN CLG .4% CONDNS WB=>MDB,3.9811754096E-002,0.2752414104,Pass,Pass,4.8459521619E-002,0.1997524708,Pass,Pass
 Warmup Convergence Information,THERMAL ZONE 4,SizingPeriod: PIACENZA ANN CLG .4% CONDNS WB=>MDB,3.7500000000E-002,0.2950435169,Pass,Pass,1.3990116274E-002,5.0007115551E-002,Pass,Pass
 Warmup Convergence Information,THERMAL ZONE 5,SizingPeriod: PIACENZA ANN CLG .4% CONDNS WB=>MDB,3.9849136155E-002,0.2799821522,Pass,Pass,6.3094649332E-002,0.2783402212,Pass,Pass
 Warmup Convergence Information,THERMAL ZONE 6,SizingPeriod: PIACENZA ANN CLG .4% CONDNS WB=>MDB,3.7500000000E-002,0.2958172052,Pass,Pass,1.4030394544E-002,5.2464737831E-002,Pass,Pass
Environment,PIACENZA ANN HTG 99.6% CONDNS DB,SizingPeriod:DesignDay,01/21,01/21,WinterDesignDay,1,N/A,N/A,N/A,N/A,N/A,N/A
Environment:Daylight Saving,No,SizingPeriod:DesignDay
Environment:Design Day Data,-6.10,0.00,DefaultMultipliers,99726,250,2.0,0.00,No,No
Environment:Design Day Misc, 21,1229.0,0.1415,5.7310E-002,1.0,-11.15,-20.1,ASHRAEClearSky
Environment:WarmupDays,  6
 Warmup Convergence Information,THERMAL ZONE 1,SizingPeriod: PIACENZA ANN HTG 99.6% CONDNS DB,5.4499614698E-014,3.5170477787E-014,Pass,Pass,1.8478210762E-003,1.5604495457E-002,Pass,Pass
 Warmup Convergence Information,THERMAL ZONE 2,SizingPeriod: PIACENZA ANN HTG 99.6% CONDNS DB,1.3594064146E-014,1.5190648920E-014,Pass,Pass,5.2853702233E-009,2.0135434946E-009,Pass,Pass
 Warmup Convergence Information,THERMAL ZONE 3,SizingPeriod: PIACENZA ANN HTG 99.6% CONDNS DB,5.3734794392E-014,4.0625735727E-014,Pass,Pass,1.7614703357E-003,1.4872253985E-002,Pass,Pass
 Warmup Convergence Information,THERMAL ZONE 4,SizingPeriod: PIACENZA ANN HTG 99.6% CONDNS DB,1.0164708581E-014,9.3398304952E-015,Pass,Pass,1.6690813750E-008,6.6391989831E-009,Pass,Pass
 Warmup Convergence Information,THERMAL ZONE 5,SizingPeriod: PIACENZA ANN HTG 99.6% CONDNS DB,5.4672316057E-014,5.3817897740E-014,Pass,Pass,4.1029614585E-003,3.4936761374E-002,Pass,Pass
 Warmup Convergence Information,THERMAL ZONE 6,SizingPeriod: PIACENZA ANN HTG 99.6% CONDNS DB,3.9745984282E-014,3.0735960720E-014,Pass,Pass,7.1961318707E-003,6.2434558106E-002,Pass,Pass
Environment,PIACENZA ANN HTG WIND 99.6% CONDNS WS=>MCDB,SizingPeriod:DesignDay,01/21,01/21,WinterDesignDay,1,N/A,N/A,N/A,N/A,N/A,N/A
Environment:Daylight Saving,No,SizingPeriod:DesignDay
Environment:Design Day Data,5.80,0.00,DefaultMultipliers,99726,250,8.9,0.00,No,No
Environment:Design Day Misc, 21,1229.0,0.1415,5.7310E-002,1.0,-11.15,-20.1,ASHRAEClearSky
Environment:WarmupDays,  6
 Warmup Convergence Information,THERMAL ZONE 1,SizingPeriod: PIACENZA ANN HTG WIND 99.6% CONDNS WS=>MCDB,4.0782192438E-014,4.6402954520E-014,Pass,Pass,1.4442895702E-003,1.2186361980E-002,Pass,Pass
 Warmup Convergence Information,THERMAL ZONE 2,SizingPeriod: PIACENZA ANN HTG WIND 99.6% CONDNS WS=>MCDB,1.3939466865E-014,1.5469382915E-014,Pass,Pass,1.2274465882E-009,7.0503304548E-010,Pass,Pass
 Warmup Convergence Information,THERMAL ZONE 3,SizingPeriod: PIACENZA ANN HTG WIND 99.6% CONDNS WS=>MCDB,4.6481337298E-014,4.6445494625E-014,Pass,Pass,1.4767322636E-003,1.2460860800E-002,Pass,Pass
 Warmup Convergence Information,THERMAL ZONE 4,SizingPeriod: PIACENZA ANN HTG WIND 99.6% CONDNS WS=>MCDB,8.8571125742E-015,8.0753880903E-015,Pass,Pass,5.7074465838E-009,3.4546341782E-009,Pass,Pass
 Warmup Convergence Information,THERMAL ZONE 5,SizingPeriod: PIACENZA ANN HTG WIND 99.6% CONDNS WS=>MCDB,6.7501559897E-014,6.5349386654E-014,Pass,Pass,3.6779304034E-003,3.1255867121E-002,Pass,Pass
 Warmup Convergence Information,THERMAL ZONE 6,SizingPeriod: PIACENZA ANN HTG WIND 99.6% CONDNS WS=>MCDB,2.0082700934E-014,2.3511370447E-014,Pass,Pass,6.8303480182E-003,5.9111138203E-002,Pass,Pass
Environment,PIACENZA ANN HUM_N 99.6% CONDNS DP=>MCDB,SizingPeriod:DesignDay,01/21,01/21,WinterDesignDay,1,N/A,N/A,N/A,N/A,N/A,N/A
Environment:Daylight Saving,No,SizingPeriod:DesignDay
Environment:Design Day Data,3.50,0.00,DefaultMultipliers,99726,250,2.0,0.00,No,No
Environment:Design Day Misc, 21,1229.0,0.1415,5.7310E-002,1.0,-11.15,-20.1,ASHRAEClearSky
Environment:WarmupDays,  6
 Warmup Convergence Information,THERMAL ZONE 1,SizingPeriod: PIACENZA ANN HUM_N 99.6% CONDNS DP=>MCDB,2.5189726848E-014,2.2206091501E-014,Pass,Pass,1.6043934771E-003,1.3541226479E-002,Pass,Pass
 Warmup Convergence Information,THERMAL ZONE 2,SizingPeriod: PIACENZA ANN HUM_N 99.6% CONDNS DP=>MCDB,7.5741881902E-015,7.1453636801E-015,Pass,Pass,1.3020202993E-008,5.0807482348E-009,Pass,Pass
 Warmup Convergence Information,THERMAL ZONE 3,SizingPeriod: PIACENZA ANN HUM_N 99.6% CONDNS DP=>MCDB,7.3274719625E-015,1.4438591649E-014,Pass,Pass,1.6310127702E-003,1.3766598040E-002,Pass,Pass
 Warmup Convergence Information,THERMAL ZONE 4,SizingPeriod: PIACENZA ANN HUM_N 99.6% CONDNS DP=>MCDB,3.3800123194E-015,3.9126891375E-015,Pass,Pass,4.4040988890E-008,1.7810763537E-008,Pass,Pass
 Warmup Convergence Information,THERMAL ZONE 5,SizingPeriod: PIACENZA ANN HUM_N 99.6% CONDNS DP=>MCDB,4.2558549277E-014,2.8487841105E-014,Pass,Pass,3.8311897840E-003,3.2580610784E-002,Pass,Pass
 Warmup Convergence Information,THERMAL ZONE 6,SizingPeriod: PIACENZA ANN HUM_N 99.6% CONDNS DP=>MCDB,7.1794422259E-015,1.2310299217E-014,Pass,Pass,6.4738474152E-003,5.5891379615E-002,Pass,Pass
Environment,RUN PERIOD 1,WeatherFileRunPeriod,01/01,12/31,Sunday,365,Use RunPeriod Specified Day,No,No,No,Yes,Yes
Environment:Daylight Saving,No,RunPeriod Object
Environment:WarmupDays,  6
 Warmup Convergence Information,THERMAL ZONE 1,RunPeriod: RUN PERIOD 1,7.4261584536E-015,6.9767493054E-015,Pass,Pass,1.5214641084E-002,1.7716868381E-002,Pass,Pass
 Warmup Convergence Information,THERMAL ZONE 2,RunPeriod: RUN PERIOD 1,7.3748679625E-004,6.0573820404E-004,Pass,Pass,0.0000000000,0.0000000000,Pass,Pass
 Warmup Convergence Information,THERMAL ZONE 3,RunPeriod: RUN PERIOD 1,2.5535129566E-014,1.8975397214E-014,Pass,Pass,4.2977639972E-003,5.7478566134E-003,Pass,Pass
 Warmup Convergence Information,THERMAL ZONE 4,RunPeriod: RUN PERIOD 1,8.2737803899E-004,4.4057880391E-004,Pass,Pass,0.0000000000,0.0000000000,Pass,Pass
 Warmup Convergence Information,THERMAL ZONE 5,RunPeriod: RUN PERIOD 1,4.2151467502E-014,3.6393777582E-014,Pass,Pass,3.9539361386E-003,5.1013612478E-003,Pass,Pass
 Warmup Convergence Information,THERMAL ZONE 6,RunPeriod: RUN PERIOD 1,9.7159038374E-003,9.8136940546E-003,Pass,Pass,0.0000000000,0.0000000000,Pass,Pass
! <Program Control Information:Threads/Parallel Sims>, Threading Supported,Maximum Number of Threads, Env Set Threads (OMP_NUM_THREADS), EP Env Set Threads (EP_OMP_NUM_THREADS), IDF Set Threads, Number of Threads Used (Interior Radiant Exchange), Number Nominal Surfaces, Number Parallel Sims
Program Control:Threads/Parallel Sims, No,1, N/A, N/A, N/A, N/A, N/A, N/A
End of Data
